*SPEF "ieee 1481-1999"
*DESIGN "HRALM4"
*DATE "11:11:11 Fri 11 11, 1111"
*VENDOR "OpenRCX"
*PROGRAM "Parallel Extraction"
*VERSION "1.0"
*DESIGN_FLOW "NAME_SCOPE LOCAL" "PIN_CAP NONE"
*DIVIDER /
*DELIMITER :
*BUS_DELIMITER []
*T_UNIT 1 NS
*C_UNIT 1 PF
*R_UNIT 1 OHM
*L_UNIT 1 HENRY

*NAME_MAP
*1 ADDER\.A1\.Sum\[0\]
*2 ADDER\.A4\.Sum\[0\]
*3 _0000_
*4 _0001_
*5 _0002_
*6 _0003_
*7 _0004_
*8 _0005_
*9 _0006_
*10 _0007_
*11 _0008_
*12 _0009_
*13 _0010_
*14 _0011_
*15 _0012_
*16 _0013_
*17 _0014_
*18 _0015_
*19 _0016_
*20 _0017_
*21 _0018_
*22 _0019_
*23 _0020_
*24 _0021_
*25 _0022_
*26 _0023_
*27 _0024_
*28 _0025_
*29 _0026_
*30 _0027_
*31 _0028_
*32 _0029_
*33 _0030_
*34 _0031_
*35 _0032_
*36 _0033_
*37 _0034_
*38 _0035_
*39 _0036_
*40 _0037_
*41 _0038_
*42 _0039_
*43 _0040_
*44 _0041_
*45 _0042_
*46 _0043_
*47 _0044_
*48 _0045_
*49 _0046_
*50 _0047_
*51 _0048_
*52 _0049_
*53 _0050_
*54 _0051_
*55 _0052_
*56 _0053_
*57 _0054_
*58 _0055_
*59 _0056_
*60 _0057_
*61 _0058_
*62 _0059_
*63 _0060_
*64 _0061_
*65 _0062_
*66 _0063_
*67 _0064_
*68 _0065_
*69 _0066_
*70 _0067_
*71 _0068_
*72 _0069_
*73 _0070_
*74 _0071_
*75 _0072_
*76 _0073_
*77 _0074_
*78 _0075_
*79 _0076_
*80 _0077_
*81 _0078_
*82 _0079_
*83 _0080_
*84 _0081_
*85 _0082_
*86 _0083_
*87 _0084_
*88 _0085_
*89 _0086_
*90 _0087_
*91 _0088_
*92 _0089_
*93 _0090_
*94 _0091_
*95 _0092_
*96 _0093_
*97 _0094_
*98 _0095_
*99 _0096_
*100 _0097_
*101 _0098_
*102 _0099_
*103 _0100_
*104 _0101_
*105 _0102_
*106 _0103_
*107 _0104_
*108 _0105_
*109 _0106_
*110 _0107_
*111 _0108_
*112 _0109_
*113 _0110_
*114 _0111_
*115 _0112_
*116 _0113_
*117 _0114_
*118 _0115_
*119 net62
*120 _0117_
*121 net61
*122 net60
*123 net59
*124 _0121_
*125 _0122_
*126 _0123_
*127 net58
*128 _0125_
*129 _0126_
*130 _0127_
*131 _0128_
*132 net57
*133 _0130_
*134 _0131_
*135 _0132_
*136 _0133_
*137 _0134_
*138 net55
*139 net54
*140 _0137_
*141 net53
*142 net52
*143 _0140_
*144 _0141_
*145 _0142_
*146 net51
*147 _0144_
*148 _0145_
*149 _0146_
*150 _0147_
*151 _0148_
*152 _0149_
*153 _0150_
*154 net50
*155 _0152_
*156 _0153_
*157 net49
*158 _0155_
*159 _0156_
*160 _0157_
*161 _0158_
*162 _0159_
*163 net48
*164 _0161_
*165 _0162_
*166 _0163_
*167 _0164_
*168 _0165_
*169 _0166_
*170 _0167_
*171 _0168_
*172 _0169_
*173 _0170_
*174 _0171_
*175 _0172_
*176 _0173_
*177 _0174_
*178 _0175_
*179 _0176_
*180 _0177_
*181 _0178_
*182 _0179_
*183 _0180_
*184 _0181_
*185 _0182_
*186 _0183_
*187 _0184_
*188 _0185_
*189 _0186_
*190 _0187_
*191 net46
*192 _0189_
*193 net45
*194 net44
*195 _0192_
*196 _0193_
*197 net43
*198 _0195_
*199 _0196_
*200 _0197_
*201 _0198_
*202 _0199_
*203 _0200_
*204 _0201_
*205 _0202_
*206 _0203_
*207 _0204_
*208 _0205_
*209 _0206_
*210 _0207_
*211 _0208_
*212 _0209_
*213 _0210_
*214 _0211_
*215 _0212_
*216 _0213_
*217 _0214_
*218 net42
*219 net41
*220 _0217_
*221 net40
*222 net39
*223 net38
*224 _0221_
*225 net37
*226 _0223_
*227 _0224_
*228 _0225_
*229 _0226_
*230 net36
*231 _0228_
*232 _0229_
*233 _0230_
*234 _0231_
*235 _0232_
*236 _0233_
*237 net35
*238 _0235_
*239 net34
*240 _0237_
*241 _0238_
*242 _0239_
*243 _0240_
*244 _0241_
*245 net33
*246 _0243_
*247 net32
*248 _0245_
*249 net31
*250 _0247_
*251 _0248_
*252 _0249_
*253 _0250_
*254 _0251_
*255 net30
*256 net29
*257 net28
*258 _0255_
*259 net27
*260 _0257_
*261 _0258_
*262 _0259_
*263 _0260_
*264 _0261_
*265 _0262_
*266 _0263_
*267 _0264_
*268 _0265_
*269 net26
*270 _0267_
*271 _0268_
*272 _0269_
*273 _0270_
*274 _0271_
*275 _0272_
*276 _0273_
*277 _0274_
*278 _0275_
*279 _0276_
*280 net25
*281 _0278_
*282 _0279_
*283 _0280_
*284 _0281_
*285 _0282_
*286 _0283_
*287 _0284_
*288 net24
*289 net23
*290 _0287_
*291 _0288_
*292 net22
*293 _0290_
*294 _0291_
*295 _0292_
*296 _0293_
*297 _0294_
*298 _0295_
*299 _0296_
*300 _0297_
*301 _0298_
*302 _0299_
*303 _0300_
*304 _0301_
*305 _0302_
*306 _0303_
*307 _0304_
*308 _0305_
*309 _0306_
*310 _0307_
*311 _0308_
*312 _0309_
*313 _0310_
*314 _0311_
*315 _0312_
*316 _0313_
*317 _0314_
*318 net21
*319 _0316_
*320 _0317_
*321 _0318_
*322 _0319_
*323 _0320_
*324 _0321_
*325 _0322_
*326 _0323_
*327 _0324_
*328 _0325_
*329 _0326_
*330 _0327_
*331 _0328_
*332 _0329_
*333 _0330_
*334 _0331_
*335 _0332_
*336 _0333_
*337 _0334_
*338 _0335_
*339 _0336_
*340 _0337_
*341 _0338_
*342 _0339_
*343 _0340_
*344 net20
*345 net19
*346 net18
*347 _0344_
*348 _0345_
*349 _0346_
*350 _0347_
*351 _0348_
*352 _0349_
*353 _0350_
*354 _0351_
*355 _0352_
*356 _0353_
*357 _0354_
*358 _0355_
*359 _0356_
*360 _0357_
*361 _0358_
*362 _0359_
*363 _0360_
*364 _0361_
*365 net17
*366 _0363_
*367 _0364_
*368 net16
*369 _0366_
*370 net15
*371 net14
*372 net13
*373 _0370_
*374 _0371_
*375 _0372_
*376 _0373_
*377 _0374_
*378 _0375_
*379 _0376_
*380 _0377_
*381 _0378_
*382 _0379_
*383 _0380_
*384 net12
*385 _0382_
*386 net11
*387 net10
*388 _0385_
*389 _0386_
*390 _0387_
*391 _0388_
*392 _0389_
*393 _0390_
*394 _0391_
*395 _0392_
*396 net9
*397 _0394_
*398 _0395_
*399 _0396_
*400 _0397_
*401 _0398_
*402 _0399_
*403 _0400_
*404 _0401_
*405 _0402_
*406 _0403_
*407 _0404_
*408 _0405_
*409 _0406_
*410 _0407_
*411 _0408_
*412 _0409_
*413 _0410_
*414 _0411_
*415 _0412_
*416 _0413_
*417 _0414_
*418 _0415_
*419 _0416_
*420 _0417_
*421 _0418_
*422 _0419_
*423 _0420_
*424 _0421_
*425 net8
*426 _0423_
*427 _0424_
*428 _0425_
*429 _0426_
*430 _0427_
*431 _0428_
*432 _0429_
*433 _0430_
*434 _0431_
*435 _0432_
*436 _0433_
*437 _0434_
*438 _0435_
*439 _0436_
*440 _0437_
*441 _0438_
*442 _0439_
*443 _0440_
*444 _0441_
*445 _0442_
*446 _0443_
*447 _0444_
*448 _0445_
*449 _0446_
*450 _0447_
*451 _0448_
*452 _0449_
*453 _0450_
*454 _0451_
*455 _0452_
*456 _0453_
*457 _0454_
*458 _0455_
*459 _0456_
*460 _0457_
*461 _0458_
*462 _0459_
*463 _0460_
*464 _0461_
*465 _0462_
*466 _0463_
*467 _0464_
*468 _0465_
*469 _0466_
*470 _0467_
*471 _0468_
*472 _0469_
*473 _0470_
*474 _0471_
*475 _0472_
*476 _0473_
*477 _0474_
*478 _0475_
*479 _0476_
*480 _0477_
*481 net6
*482 _0479_
*483 _0480_
*484 _0481_
*485 _0482_
*486 _0483_
*487 _0484_
*488 _0485_
*489 _0486_
*490 _0487_
*491 _0488_
*492 _0489_
*493 _0490_
*494 _0491_
*495 _0492_
*496 _0493_
*497 _0494_
*498 _0495_
*499 _0496_
*500 _0497_
*501 _0498_
*502 _0499_
*503 _0500_
*504 _0501_
*505 _0502_
*506 _0503_
*507 _0504_
*508 _0505_
*509 _0506_
*510 _0507_
*511 _0508_
*512 _0509_
*513 _0510_
*514 _0511_
*515 _0512_
*516 _0513_
*517 _0514_
*518 _0515_
*519 _0516_
*520 _0517_
*521 _0518_
*522 _0519_
*523 _0520_
*524 _0521_
*525 _0522_
*526 _0523_
*527 _0524_
*528 _0525_
*529 _0526_
*530 _0527_
*531 net5
*532 _0529_
*533 net4
*534 net3
*535 _0532_
*536 _0533_
*537 _0534_
*538 _0535_
*539 net2
*540 _0537_
*541 _0538_
*542 _0539_
*543 _0540_
*544 _0541_
*545 _0542_
*546 _0543_
*547 _0544_
*548 _0545_
*549 _0546_
*550 _0547_
*551 _0548_
*552 _0549_
*553 _0550_
*554 _0551_
*555 _0552_
*556 _0553_
*557 _0554_
*558 _0555_
*559 _0556_
*560 _0557_
*561 _0558_
*562 _0559_
*563 _0560_
*564 _0561_
*565 _0562_
*566 _0563_
*567 _0564_
*568 _0565_
*569 _0566_
*570 _0567_
*571 _0568_
*572 _0569_
*573 _0570_
*574 _0571_
*575 _0572_
*576 _0573_
*577 _0574_
*578 _0575_
*579 _0576_
*580 _0577_
*581 _0578_
*582 _0579_
*583 _0580_
*584 _0581_
*585 _0582_
*586 _0583_
*587 _0584_
*588 _0585_
*589 _0586_
*590 _0587_
*591 _0588_
*592 _0589_
*593 _0590_
*594 _0591_
*595 _0592_
*596 _0593_
*597 _0594_
*598 _0595_
*599 _0596_
*600 _0597_
*601 _0598_
*602 _0599_
*603 _0600_
*604 _0601_
*605 _0602_
*606 _0603_
*607 _0604_
*608 _0605_
*609 _0606_
*610 _0607_
*611 _0608_
*612 _0609_
*613 _0610_
*614 _0611_
*615 _0612_
*616 _0613_
*617 _0614_
*618 _0615_
*619 _0616_
*620 _0617_
*621 _0618_
*622 _0619_
*623 net1
*624 _0621_
*626 _0623_
*627 _0624_
*628 _0625_
*629 _0626_
*630 _0627_
*631 _0628_
*632 _0629_
*633 _0630_
*634 _0631_
*635 _0632_
*636 _0633_
*637 _0634_
*638 _0635_
*639 _0636_
*640 _0637_
*641 _0638_
*642 _0639_
*643 _0640_
*644 _0641_
*645 _0642_
*646 _0643_
*647 _0644_
*648 _0645_
*649 _0646_
*650 _0647_
*651 _0648_
*652 _0649_
*653 _0650_
*654 _0651_
*655 _0652_
*656 _0653_
*657 _0654_
*658 _0655_
*659 _0656_
*660 _0657_
*661 _0658_
*662 _0659_
*663 _0660_
*664 _0661_
*665 _0662_
*666 _0663_
*667 _0664_
*668 _0665_
*669 _0666_
*670 _0667_
*672 _0669_
*673 _0670_
*674 _0671_
*675 _0672_
*676 _0673_
*677 _0674_
*678 _0675_
*679 _0676_
*680 _0677_
*681 _0678_
*682 _0679_
*683 _0680_
*684 _0681_
*685 _0682_
*686 _0683_
*687 _0684_
*688 _0685_
*689 _0686_
*690 _0687_
*691 _0688_
*692 _0689_
*693 _0690_
*694 net47
*695 _0692_
*696 _0693_
*697 net56
*698 _0695_
*699 _0696_
*700 _0697_
*701 _0698_
*702 _0699_
*703 _0700_
*704 _0701_
*705 _0702_
*706 _0703_
*707 _0704_
*708 _0705_
*709 _0706_
*710 _0707_
*711 _0708_
*712 _0709_
*713 _0710_
*714 _0711_
*715 _0712_
*716 _0713_
*717 _0714_
*718 _0715_
*719 _0716_
*720 _0717_
*721 net7
*722 _0719_
*723 _0720_
*724 _0721_
*725 _0722_
*726 _0723_
*727 _0724_
*728 _0725_
*729 _0726_
*730 _0727_
*731 _0728_
*732 _0729_
*733 _0730_
*734 _0731_
*735 _0732_
*736 _0733_
*737 _0734_
*738 _0735_
*739 _0736_
*740 _0737_
*741 _0738_
*742 _0739_
*743 _0740_
*744 _0741_
*745 _0742_
*746 _0743_
*747 _0744_
*748 _0745_
*749 _0746_
*750 _0747_
*751 _0748_
*752 _0749_
*753 _0750_
*754 _0751_
*755 _0752_
*756 add1\.sm
*757 clk
*758 p[0]
*759 p[10]
*760 p[11]
*761 p[12]
*762 p[13]
*763 p[14]
*764 p[15]
*765 p[16]
*766 p[17]
*767 p[18]
*768 p[19]
*769 p[1]
*770 p[20]
*771 p[21]
*772 p[22]
*773 p[23]
*774 p[24]
*775 p[25]
*776 p[26]
*777 p[27]
*778 p[28]
*779 p[29]
*780 p[2]
*781 p[30]
*782 p[31]
*783 p[3]
*784 p[4]
*785 p[5]
*786 p[6]
*787 p[7]
*788 p[8]
*789 p[9]
*790 rst
*791 x[0]
*792 x[10]
*793 x[11]
*794 x[12]
*795 x[13]
*796 x[14]
*797 x[15]
*798 x[1]
*799 x[2]
*800 x[3]
*801 x[4]
*802 x[5]
*803 x[6]
*804 x[7]
*805 x[8]
*806 x[9]
*807 y[0]
*808 y[10]
*809 y[11]
*810 y[12]
*811 y[13]
*812 y[14]
*813 y[15]
*814 y[1]
*815 y[2]
*816 y[3]
*817 y[4]
*818 y[5]
*819 y[6]
*820 y[7]
*821 y[8]
*822 y[9]
*823 net63
*824 net64
*825 net65
*826 clknet_0_clk
*827 clknet_2_0__leaf_clk
*828 clknet_2_1__leaf_clk
*829 clknet_2_2__leaf_clk
*830 clknet_2_3__leaf_clk
*831 net66
*832 net67
*833 net68
*834 net69
*835 net70
*836 net71
*837 net72
*838 net73
*839 net74
*840 net75
*841 net76
*842 net77
*843 net78
*844 net79
*845 net80
*846 net81
*847 net82
*848 net83
*849 net84
*850 net85
*851 net86
*852 net87
*853 net88
*854 net89
*855 net90
*856 net91
*857 net92
*858 net93
*859 net94
*860 net95
*861 net96
*862 net97
*863 net98
*864 net99
*865 net100
*866 net101
*867 net102
*868 net103
*869 net155
*870 net156
*871 net157
*872 net158
*873 net159
*874 net160
*875 net161
*876 net162
*877 net163
*878 net164
*879 net165
*880 net166
*881 net167
*882 net168
*883 net169
*884 net170
*885 net171
*886 net172
*887 net173
*888 net174
*889 net175
*890 net176
*891 net177
*892 net178
*893 PHY_EDGE_ROW_11_Left_63
*894 _0754_
*895 PHY_EDGE_ROW_10_Left_62
*896 PHY_EDGE_ROW_9_Left_61
*897 PHY_EDGE_ROW_8_Left_60
*898 _0758_
*899 _0759_
*900 _0760_
*901 PHY_EDGE_ROW_7_Left_59
*902 _0762_
*903 _0763_
*904 _0764_
*905 _0765_
*906 PHY_EDGE_ROW_6_Left_58
*907 _0767_
*908 _0768_
*909 _0769_
*910 _0770_
*911 PHY_EDGE_ROW_5_Left_57
*912 _0772_
*913 PHY_EDGE_ROW_4_Left_56
*914 PHY_EDGE_ROW_3_Left_55
*915 _0775_
*916 PHY_EDGE_ROW_2_Left_54
*917 PHY_EDGE_ROW_1_Left_53
*918 _0778_
*919 _0779_
*920 _0780_
*921 PHY_EDGE_ROW_0_Left_52
*922 _0782_
*923 _0783_
*924 _0784_
*925 _0785_
*926 _0786_
*927 _0787_
*928 _0788_
*929 PHY_EDGE_ROW_51_Right_51
*930 _0790_
*931 _0791_
*932 PHY_EDGE_ROW_50_Right_50
*933 _0793_
*934 _0794_
*935 _0795_
*936 _0796_
*937 _0797_
*938 PHY_EDGE_ROW_49_Right_49
*939 _0799_
*940 _0800_
*941 _0801_
*942 _0802_
*943 _0803_
*944 _0804_
*945 _0805_
*946 _0806_
*947 _0807_
*948 _0808_
*949 _0809_
*950 PHY_EDGE_ROW_48_Right_48
*951 _0811_
*952 _0812_
*953 _0813_
*954 _0814_
*955 _0815_
*956 _0816_
*957 _0817_
*958 _0818_
*959 _0819_
*960 _0820_
*961 _0821_
*962 _0822_
*963 _0823_
*964 _0824_
*965 _0825_
*966 _0826_
*967 PHY_EDGE_ROW_47_Right_47
*968 _0828_
*969 PHY_EDGE_ROW_46_Right_46
*970 PHY_EDGE_ROW_45_Right_45
*971 _0831_
*972 _0832_
*973 PHY_EDGE_ROW_44_Right_44
*974 _0834_
*975 _0835_
*976 _0836_
*977 _0837_
*978 _0838_
*979 _0839_
*980 _0840_
*981 _0841_
*982 _0842_
*983 _0843_
*984 _0844_
*985 _0845_
*986 _0846_
*987 _0847_
*988 _0848_
*989 _0849_
*990 _0850_
*991 _0851_
*992 _0852_
*993 _0853_
*994 _0854_
*995 PHY_EDGE_ROW_43_Right_43
*996 PHY_EDGE_ROW_42_Right_42
*997 _0857_
*998 PHY_EDGE_ROW_41_Right_41
*999 PHY_EDGE_ROW_40_Right_40
*1000 PHY_EDGE_ROW_39_Right_39
*1001 _0861_
*1002 PHY_EDGE_ROW_38_Right_38
*1003 _0863_
*1004 _0864_
*1005 _0865_
*1006 _0866_
*1007 PHY_EDGE_ROW_37_Right_37
*1008 _0868_
*1009 _0869_
*1010 _0870_
*1011 _0871_
*1012 _0872_
*1013 _0873_
*1014 PHY_EDGE_ROW_36_Right_36
*1015 _0875_
*1016 PHY_EDGE_ROW_35_Right_35
*1017 _0877_
*1018 _0878_
*1019 _0879_
*1020 _0880_
*1021 _0881_
*1022 PHY_EDGE_ROW_34_Right_34
*1023 _0883_
*1024 PHY_EDGE_ROW_33_Right_33
*1025 _0885_
*1026 PHY_EDGE_ROW_32_Right_32
*1027 _0887_
*1028 _0888_
*1029 _0889_
*1030 _0890_
*1031 _0891_
*1032 PHY_EDGE_ROW_31_Right_31
*1033 _0893_
*1034 PHY_EDGE_ROW_30_Right_30
*1035 PHY_EDGE_ROW_29_Right_29
*1036 _0896_
*1037 PHY_EDGE_ROW_28_Right_28
*1038 _0898_
*1039 _0899_
*1040 _0900_
*1041 _0901_
*1042 _0902_
*1043 _0903_
*1044 _0904_
*1045 _0905_
*1046 _0906_
*1047 PHY_EDGE_ROW_27_Right_27
*1048 _0908_
*1049 _0909_
*1050 _0910_
*1051 _0911_
*1052 _0912_
*1053 _0913_
*1054 _0914_
*1055 _0915_
*1056 _0916_
*1057 _0917_
*1058 _0918_
*1059 _0919_
*1060 PHY_EDGE_ROW_26_Right_26
*1061 _0921_
*1062 _0922_
*1063 _0923_
*1064 _0924_
*1065 _0925_
*1066 _0926_
*1067 _0927_
*1068 PHY_EDGE_ROW_25_Right_25
*1069 PHY_EDGE_ROW_24_Right_24
*1070 _0930_
*1071 _0931_
*1072 PHY_EDGE_ROW_23_Right_23
*1073 _0933_
*1074 _0934_
*1075 _0935_
*1076 _0936_
*1077 _0937_
*1078 _0938_
*1079 _0939_
*1080 _0940_
*1081 _0941_
*1082 _0942_
*1083 _0943_
*1084 _0944_
*1085 _0945_
*1086 _0946_
*1087 _0947_
*1088 _0948_
*1089 _0949_
*1090 _0950_
*1091 _0951_
*1092 _0952_
*1093 _0953_
*1094 _0954_
*1095 _0955_
*1096 _0956_
*1097 _0957_
*1098 PHY_EDGE_ROW_22_Right_22
*1099 _0959_
*1100 _0960_
*1101 _0961_
*1102 _0962_
*1103 _0963_
*1104 _0964_
*1105 _0965_
*1106 _0966_
*1107 _0967_
*1108 _0968_
*1109 _0969_
*1110 _0970_
*1111 _0971_
*1112 _0972_
*1113 _0973_
*1114 _0974_
*1115 _0975_
*1116 _0976_
*1117 _0977_
*1118 _0978_
*1119 _0979_
*1120 _0980_
*1121 _0981_
*1122 _0982_
*1123 _0983_
*1124 _0984_
*1125 _0985_
*1126 _0986_
*1127 PHY_EDGE_ROW_21_Right_21
*1128 PHY_EDGE_ROW_20_Right_20
*1129 PHY_EDGE_ROW_19_Right_19
*1130 _0990_
*1131 _0991_
*1132 _0992_
*1133 _0993_
*1134 _0994_
*1135 _0995_
*1136 _0996_
*1137 _0997_
*1138 _0998_
*1139 _0999_
*1140 _1000_
*1141 _1001_
*1142 _1002_
*1143 _1003_
*1144 _1004_
*1145 _1005_
*1146 _1006_
*1147 _1007_
*1148 PHY_EDGE_ROW_18_Right_18
*1149 _1009_
*1150 _1010_
*1151 PHY_EDGE_ROW_17_Right_17
*1152 _1012_
*1153 _1013_
*1154 PHY_EDGE_ROW_16_Right_16
*1155 PHY_EDGE_ROW_15_Right_15
*1156 PHY_EDGE_ROW_14_Right_14
*1157 _1017_
*1158 _1018_
*1159 _1019_
*1160 _1020_
*1161 _1021_
*1162 _1022_
*1163 _1023_
*1164 _1024_
*1165 _1025_
*1166 _1026_
*1167 _1027_
*1168 _1028_
*1169 PHY_EDGE_ROW_13_Right_13
*1170 _1030_
*1171 PHY_EDGE_ROW_12_Right_12
*1172 PHY_EDGE_ROW_11_Right_11
*1173 _1033_
*1174 _1034_
*1175 _1035_
*1176 _1036_
*1177 _1037_
*1178 _1038_
*1179 _1039_
*1180 _1040_
*1181 PHY_EDGE_ROW_10_Right_10
*1182 _1042_
*1183 _1043_
*1184 _1044_
*1185 _1045_
*1186 _1046_
*1187 _1047_
*1188 _1048_
*1189 _1049_
*1190 _1050_
*1191 _1051_
*1192 _1052_
*1193 _1053_
*1194 _1054_
*1195 _1055_
*1196 _1056_
*1197 _1057_
*1198 _1058_
*1199 _1059_
*1200 _1060_
*1201 _1061_
*1202 _1062_
*1203 _1063_
*1204 _1064_
*1205 _1065_
*1206 _1066_
*1207 _1067_
*1208 _1068_
*1209 _1069_
*1210 _1070_
*1211 _1071_
*1212 _1072_
*1213 _1073_
*1214 PHY_EDGE_ROW_9_Right_9
*1215 _1075_
*1216 _1076_
*1217 _1077_
*1218 _1078_
*1219 _1079_
*1220 _1080_
*1221 _1081_
*1222 _1082_
*1223 _1083_
*1224 _1084_
*1225 _1085_
*1226 _1086_
*1227 _1087_
*1228 _1088_
*1229 _1089_
*1230 _1090_
*1231 _1091_
*1232 _1092_
*1233 _1093_
*1234 _1094_
*1235 _1095_
*1236 _1096_
*1237 _1097_
*1238 _1098_
*1239 _1099_
*1240 _1100_
*1241 _1101_
*1242 _1102_
*1243 _1103_
*1244 _1104_
*1245 _1105_
*1246 _1106_
*1247 _1107_
*1248 _1108_
*1249 _1109_
*1250 _1110_
*1251 _1111_
*1252 _1112_
*1253 PHY_EDGE_ROW_8_Right_8
*1254 _1114_
*1255 _1115_
*1256 _1116_
*1257 _1117_
*1258 _1118_
*1259 _1119_
*1260 _1120_
*1261 _1121_
*1262 _1122_
*1263 _1123_
*1264 _1124_
*1265 _1125_
*1266 _1126_
*1267 _1127_
*1268 _1128_
*1269 _1129_
*1270 _1130_
*1271 _1131_
*1272 _1132_
*1273 _1133_
*1274 _1134_
*1275 _1135_
*1276 _1136_
*1277 _1137_
*1278 _1138_
*1279 _1139_
*1280 _1140_
*1281 _1141_
*1282 _1142_
*1283 _1143_
*1284 _1144_
*1285 _1145_
*1286 _1146_
*1287 _1147_
*1288 _1148_
*1289 _1149_
*1290 _1150_
*1291 _1151_
*1292 _1152_
*1293 _1153_
*1294 _1154_
*1295 _1155_
*1296 _1156_
*1297 _1157_
*1298 _1158_
*1299 _1159_
*1300 _1160_
*1301 _1161_
*1302 _1162_
*1303 _1163_
*1304 _1164_
*1305 _1165_
*1306 _1166_
*1307 _1167_
*1308 _1168_
*1309 _1169_
*1310 _1170_
*1311 _1171_
*1312 _1172_
*1313 _1173_
*1314 _1174_
*1315 PHY_EDGE_ROW_7_Right_7
*1316 _1176_
*1317 _1177_
*1318 _1178_
*1319 _1179_
*1320 _1180_
*1321 _1181_
*1322 _1182_
*1323 _1183_
*1324 _1184_
*1325 _1185_
*1326 _1186_
*1327 _1187_
*1328 _1188_
*1329 _1189_
*1330 _1190_
*1331 _1191_
*1332 _1192_
*1333 _1193_
*1334 _1194_
*1335 _1195_
*1336 _1196_
*1337 _1197_
*1338 _1198_
*1339 _1199_
*1340 _1200_
*1341 _1201_
*1342 _1202_
*1343 _1203_
*1344 _1204_
*1345 _1205_
*1346 _1206_
*1347 _1207_
*1348 _1208_
*1349 _1209_
*1350 _1210_
*1351 _1211_
*1352 _1212_
*1353 _1213_
*1354 _1214_
*1355 _1215_
*1356 _1216_
*1357 _1217_
*1358 _1218_
*1359 _1219_
*1360 _1220_
*1361 _1221_
*1362 _1222_
*1363 _1223_
*1364 _1224_
*1365 _1225_
*1366 _1226_
*1367 _1227_
*1368 _1228_
*1369 _1229_
*1370 _1230_
*1371 _1231_
*1372 PHY_EDGE_ROW_6_Right_6
*1373 _1233_
*1374 PHY_EDGE_ROW_5_Right_5
*1375 PHY_EDGE_ROW_4_Right_4
*1376 _1236_
*1377 _1237_
*1378 _1238_
*1379 _1239_
*1380 _1240_
*1381 PHY_EDGE_ROW_3_Right_3
*1382 _1242_
*1383 _1243_
*1384 _1244_
*1385 _1245_
*1386 _1246_
*1387 _1247_
*1388 _1248_
*1389 _1249_
*1390 _1250_
*1391 _1251_
*1392 _1252_
*1393 _1253_
*1394 _1254_
*1395 _1255_
*1396 _1256_
*1397 _1257_
*1398 _1258_
*1399 _1259_
*1400 _1260_
*1401 _1261_
*1402 _1262_
*1403 _1263_
*1404 _1264_
*1405 _1265_
*1406 _1266_
*1407 _1267_
*1408 _1268_
*1409 _1269_
*1410 _1270_
*1411 _1271_
*1412 _1272_
*1413 _1273_
*1414 _1274_
*1415 _1275_
*1416 _1276_
*1417 _1277_
*1418 _1278_
*1419 _1279_
*1420 _1280_
*1421 _1281_
*1422 _1282_
*1423 _1283_
*1424 _1284_
*1425 _1285_
*1426 _1286_
*1427 _1287_
*1428 _1288_
*1429 _1289_
*1430 _1290_
*1431 _1291_
*1432 _1292_
*1433 _1293_
*1434 _1294_
*1435 _1295_
*1436 _1296_
*1437 _1297_
*1438 _1298_
*1439 _1299_
*1440 _1300_
*1441 _1301_
*1442 _1302_
*1443 _1303_
*1444 _1304_
*1445 _1305_
*1446 _1306_
*1447 _1307_
*1448 _1308_
*1449 _1309_
*1450 _1310_
*1451 _1311_
*1452 _1312_
*1453 _1313_
*1454 _1314_
*1455 _1315_
*1456 _1316_
*1457 _1317_
*1458 _1318_
*1459 _1319_
*1460 _1320_
*1461 _1321_
*1462 _1322_
*1463 _1323_
*1464 _1324_
*1465 _1325_
*1466 _1326_
*1467 _1327_
*1468 _1328_
*1469 _1329_
*1470 _1330_
*1471 _1331_
*1472 _1332_
*1473 _1333_
*1474 _1334_
*1475 _1335_
*1476 _1336_
*1477 _1337_
*1478 _1338_
*1479 _1339_
*1480 _1340_
*1481 _1341_
*1482 _1342_
*1483 _1343_
*1484 _1344_
*1485 _1345_
*1486 PHY_EDGE_ROW_2_Right_2
*1487 _1347_
*1488 PHY_EDGE_ROW_1_Right_1
*1489 _1349_
*1490 _1350_
*1491 _1351_
*1492 _1352_
*1493 _1353_
*1494 _1354_
*1495 _1355_
*1496 _1356_
*1497 _1357_
*1498 _1358_
*1499 _1359_
*1500 _1360_
*1501 _1361_
*1502 _1362_
*1503 _1363_
*1504 _1364_
*1505 _1365_
*1506 _1366_
*1507 _1367_
*1508 _1368_
*1509 _1369_
*1510 _1370_
*1511 _1371_
*1512 _1372_
*1513 _1373_
*1514 _1374_
*1515 _1375_
*1516 _1376_
*1517 _1377_
*1518 _1378_
*1519 _1379_
*1520 _1380_
*1521 _1381_
*1522 _1382_
*1523 _1383_
*1524 _1384_
*1525 _1385_
*1526 _1386_
*1527 _1387_
*1528 _1388_
*1529 _1389_
*1530 _1390_
*1531 _1391_
*1532 _1392_
*1533 _1393_
*1534 _1394_
*1535 _1395_
*1536 _1396_
*1537 _1397_
*1538 _1398_
*1539 _1399_
*1540 _1400_
*1541 _1401_
*1542 _1402_
*1543 _1403_
*1544 _1404_
*1545 _1405_
*1546 _1406_
*1547 _1407_
*1548 _1408_
*1549 PHY_EDGE_ROW_0_Right_0
*1550 _1410_
*1551 _1411_
*1552 _1412_
*1553 _1413_
*1554 _1414_
*1555 _1415_
*1556 _1416_
*1557 _1417_
*1558 _1418_
*1559 _1419_
*1560 _1420_
*1561 _1421_
*1562 _1422_
*1563 _1423_
*1564 _1424_
*1565 _1425_
*1566 _1426_
*1567 _1427_
*1568 _1428_
*1569 _1429_
*1570 _1430_
*1571 _1431_
*1572 _1432_
*1573 _1433_
*1574 _1434_
*1575 _1435_
*1576 _1436_
*1577 _1437_
*1578 _1438_
*1579 _1439_
*1580 _1440_
*1581 _1441_
*1582 _1442_
*1583 _1443_
*1584 _1444_
*1585 _1445_
*1586 _1446_
*1587 _1447_
*1588 _1448_
*1589 _1449_
*1590 _1450_
*1591 _1451_
*1592 _1452_
*1593 _1453_
*1594 _1454_
*1595 _1455_
*1596 _1456_
*1597 _1457_
*1598 _1458_
*1599 _1459_
*1600 _1460_
*1601 _1461_
*1602 _1462_
*1603 _1463_
*1604 _1464_
*1605 _1465_
*1606 _1466_
*1607 _1467_
*1608 _1468_
*1609 _1469_
*1610 _1470_
*1611 _1471_
*1612 _1472_
*1613 _1473_
*1614 _1474_
*1615 _1475_
*1616 _1476_
*1617 _1477_
*1618 _1478_
*1619 _1479_
*1620 _1480_
*1621 _1481_
*1622 _1482_
*1623 _1483_
*1624 _1484_
*1625 _1485_
*1626 _1486_
*1627 _1487_
*1628 _1488_
*1629 _1489_
*1630 _1490_
*1631 _1491_
*1632 _1492_
*1633 _1493_
*1634 _1494_
*1635 _1495_
*1636 _1496_
*1637 _1497_
*1638 _1498_
*1639 _1499_
*1640 _1500_
*1641 _1501_
*1642 _1502_
*1643 _1503_
*1644 _1504_
*1645 _1505_
*1646 _1506_
*1647 _1507_
*1648 _1508_
*1649 _1509_
*1650 _1510_
*1651 _1511_
*1652 PHY_EDGE_ROW_12_Left_64
*1653 PHY_EDGE_ROW_13_Left_65
*1654 PHY_EDGE_ROW_14_Left_66
*1655 PHY_EDGE_ROW_15_Left_67
*1656 PHY_EDGE_ROW_16_Left_68
*1657 PHY_EDGE_ROW_17_Left_69
*1658 PHY_EDGE_ROW_18_Left_70
*1659 PHY_EDGE_ROW_19_Left_71
*1660 PHY_EDGE_ROW_20_Left_72
*1661 PHY_EDGE_ROW_21_Left_73
*1662 PHY_EDGE_ROW_22_Left_74
*1663 PHY_EDGE_ROW_23_Left_75
*1664 PHY_EDGE_ROW_24_Left_76
*1665 PHY_EDGE_ROW_25_Left_77
*1666 PHY_EDGE_ROW_26_Left_78
*1667 PHY_EDGE_ROW_27_Left_79
*1668 PHY_EDGE_ROW_28_Left_80
*1669 PHY_EDGE_ROW_29_Left_81
*1670 PHY_EDGE_ROW_30_Left_82
*1671 PHY_EDGE_ROW_31_Left_83
*1672 PHY_EDGE_ROW_32_Left_84
*1673 PHY_EDGE_ROW_33_Left_85
*1674 PHY_EDGE_ROW_34_Left_86
*1675 PHY_EDGE_ROW_35_Left_87
*1676 PHY_EDGE_ROW_36_Left_88
*1677 PHY_EDGE_ROW_37_Left_89
*1678 PHY_EDGE_ROW_38_Left_90
*1679 PHY_EDGE_ROW_39_Left_91
*1680 PHY_EDGE_ROW_40_Left_92
*1681 PHY_EDGE_ROW_41_Left_93
*1682 PHY_EDGE_ROW_42_Left_94
*1683 PHY_EDGE_ROW_43_Left_95
*1684 PHY_EDGE_ROW_44_Left_96
*1685 PHY_EDGE_ROW_45_Left_97
*1686 PHY_EDGE_ROW_46_Left_98
*1687 PHY_EDGE_ROW_47_Left_99
*1688 PHY_EDGE_ROW_48_Left_100
*1689 PHY_EDGE_ROW_49_Left_101
*1690 PHY_EDGE_ROW_50_Left_102
*1691 PHY_EDGE_ROW_51_Left_103
*1692 input1
*1693 input2
*1694 input3
*1695 input4
*1696 input5
*1697 input6
*1698 input7
*1699 input8
*1700 input9
*1701 input10
*1702 input11
*1703 input12
*1704 input13
*1705 input14
*1706 input15
*1707 input16
*1708 input17
*1709 input18
*1710 input19
*1711 input20
*1712 input21
*1713 input22
*1714 input23
*1715 input24
*1716 input25
*1717 input26
*1718 input27
*1719 input28
*1720 input29
*1721 input30
*1722 input31
*1723 input32
*1724 input33
*1725 output34
*1726 output35
*1727 output36
*1728 output37
*1729 output38
*1730 output39
*1731 output40
*1732 output41
*1733 output42
*1734 output43
*1735 output44
*1736 output45
*1737 output46
*1738 output47
*1739 output48
*1740 output49
*1741 output50
*1742 output51
*1743 output52
*1744 output53
*1745 output54
*1746 output55
*1747 output56
*1748 output57
*1749 output58
*1750 output59
*1751 output60
*1752 output61
*1753 output62
*1754 output63
*1755 output64
*1756 output65
*1757 clkbuf_0_clk
*1758 clkbuf_2_0__f_clk
*1759 clkbuf_2_1__f_clk
*1760 clkbuf_2_2__f_clk
*1761 clkbuf_2_3__f_clk
*1762 rebuffer1
*1763 rebuffer2
*1764 rebuffer3
*1765 rebuffer4
*1766 rebuffer5
*1767 rebuffer6
*1768 rebuffer7
*1769 rebuffer8
*1770 rebuffer9
*1771 rebuffer10
*1772 rebuffer11
*1773 rebuffer12
*1774 rebuffer13
*1775 rebuffer14
*1776 rebuffer15
*1777 rebuffer16
*1778 rebuffer17
*1779 rebuffer18
*1780 rebuffer19
*1781 rebuffer20
*1782 rebuffer21
*1783 rebuffer22
*1784 split23
*1785 rebuffer24
*1786 rebuffer25
*1787 rebuffer26
*1788 rebuffer27
*1789 rebuffer28
*1790 rebuffer29
*1791 rebuffer30
*1792 rebuffer31
*1793 rebuffer32
*1794 rebuffer33
*1795 rebuffer34
*1796 rebuffer35
*1797 split36
*1798 rebuffer37
*1799 clone38
*1800 rebuffer90
*1801 rebuffer91
*1802 rebuffer92
*1803 rebuffer93
*1804 split94
*1805 split95
*1806 split96
*1807 split97
*1808 split98
*1809 rebuffer99
*1810 rebuffer100
*1811 rebuffer101
*1812 rebuffer102
*1813 rebuffer103
*1814 clone104
*1815 rebuffer105
*1816 clone106
*1817 clone107
*1818 rebuffer108
*1819 clone109
*1820 split110
*1821 clone111
*1822 rebuffer112
*1823 clone113
*1824 FILLER_0_0_2
*1825 FILLER_0_0_24
*1826 FILLER_0_0_44
*1827 FILLER_0_0_56
*1828 FILLER_0_0_78
*1829 FILLER_0_0_90
*1830 FILLER_0_0_112
*1831 FILLER_0_0_134
*1832 FILLER_0_0_156
*1833 FILLER_0_0_178
*1834 FILLER_0_0_205
*1835 FILLER_0_0_212
*1836 FILLER_0_0_219
*1837 FILLER_0_0_241
*1838 FILLER_0_1_2
*1839 FILLER_0_1_24
*1840 FILLER_0_1_36
*1841 FILLER_0_1_44
*1842 FILLER_0_1_52
*1843 FILLER_0_1_64
*1844 FILLER_0_1_76
*1845 FILLER_0_1_87
*1846 FILLER_0_1_92
*1847 FILLER_0_1_114
*1848 FILLER_0_1_136
*1849 FILLER_0_1_158
*1850 FILLER_0_1_180
*1851 FILLER_0_1_194
*1852 FILLER_0_1_198
*1853 FILLER_0_1_202
*1854 FILLER_0_1_224
*1855 FILLER_0_1_246
*1856 FILLER_0_1_260
*1857 FILLER_0_1_262
*1858 FILLER_0_2_2
*1859 FILLER_0_2_24
*1860 FILLER_0_2_32
*1861 FILLER_0_2_44
*1862 FILLER_0_2_52
*1863 FILLER_0_2_60
*1864 FILLER_0_2_68
*1865 FILLER_0_2_73
*1866 FILLER_0_2_83
*1867 FILLER_0_2_85
*1868 FILLER_0_2_97
*1869 FILLER_0_2_105
*1870 FILLER_0_2_127
*1871 FILLER_0_2_149
*1872 FILLER_0_2_171
*1873 FILLER_0_2_177
*1874 FILLER_0_2_179
*1875 FILLER_0_2_202
*1876 FILLER_0_2_207
*1877 FILLER_0_2_212
*1878 FILLER_0_2_234
*1879 FILLER_0_2_256
*1880 FILLER_0_2_262
*1881 FILLER_0_3_2
*1882 FILLER_0_3_12
*1883 FILLER_0_3_14
*1884 FILLER_0_3_37
*1885 FILLER_0_3_47
*1886 FILLER_0_3_49
*1887 FILLER_0_3_56
*1888 FILLER_0_3_64
*1889 FILLER_0_3_72
*1890 FILLER_0_3_80
*1891 FILLER_0_3_89
*1892 FILLER_0_3_97
*1893 FILLER_0_3_109
*1894 FILLER_0_3_131
*1895 FILLER_0_3_153
*1896 FILLER_0_3_175
*1897 FILLER_0_3_199
*1898 FILLER_0_3_221
*1899 FILLER_0_3_243
*1900 FILLER_0_3_257
*1901 FILLER_0_4_2
*1902 FILLER_0_4_24
*1903 FILLER_0_4_30
*1904 FILLER_0_4_37
*1905 FILLER_0_4_47
*1906 FILLER_0_4_52
*1907 FILLER_0_4_54
*1908 FILLER_0_4_64
*1909 FILLER_0_4_74
*1910 FILLER_0_4_78
*1911 FILLER_0_4_87
*1912 FILLER_0_4_89
*1913 FILLER_0_4_99
*1914 FILLER_0_4_107
*1915 FILLER_0_4_114
*1916 FILLER_0_4_136
*1917 FILLER_0_4_158
*1918 FILLER_0_4_180
*1919 FILLER_0_4_201
*1920 FILLER_0_4_223
*1921 FILLER_0_4_245
*1922 FILLER_0_4_259
*1923 FILLER_0_5_2
*1924 FILLER_0_5_8
*1925 FILLER_0_5_10
*1926 FILLER_0_5_18
*1927 FILLER_0_5_32
*1928 FILLER_0_5_36
*1929 FILLER_0_5_40
*1930 FILLER_0_5_42
*1931 FILLER_0_5_50
*1932 FILLER_0_5_59
*1933 FILLER_0_5_69
*1934 FILLER_0_5_73
*1935 FILLER_0_5_80
*1936 FILLER_0_5_88
*1937 FILLER_0_5_100
*1938 FILLER_0_5_108
*1939 FILLER_0_5_130
*1940 FILLER_0_5_152
*1941 FILLER_0_5_174
*1942 FILLER_0_5_184
*1943 FILLER_0_5_206
*1944 FILLER_0_5_228
*1945 FILLER_0_5_250
*1946 FILLER_0_5_255
*1947 FILLER_0_5_261
*1948 FILLER_0_6_2
*1949 FILLER_0_6_8
*1950 FILLER_0_6_16
*1951 FILLER_0_6_38
*1952 FILLER_0_6_48
*1953 FILLER_0_6_54
*1954 FILLER_0_6_76
*1955 FILLER_0_6_82
*1956 FILLER_0_6_84
*1957 FILLER_0_6_91
*1958 FILLER_0_6_101
*1959 FILLER_0_6_113
*1960 FILLER_0_6_135
*1961 FILLER_0_6_157
*1962 FILLER_0_6_163
*1963 FILLER_0_6_173
*1964 FILLER_0_6_181
*1965 FILLER_0_6_189
*1966 FILLER_0_6_211
*1967 FILLER_0_6_241
*1968 FILLER_0_6_254
*1969 FILLER_0_6_261
*1970 FILLER_0_7_2
*1971 FILLER_0_7_12
*1972 FILLER_0_7_20
*1973 FILLER_0_7_22
*1974 FILLER_0_7_29
*1975 FILLER_0_7_51
*1976 FILLER_0_7_65
*1977 FILLER_0_7_69
*1978 FILLER_0_7_80
*1979 FILLER_0_7_88
*1980 FILLER_0_7_110
*1981 FILLER_0_7_132
*1982 FILLER_0_7_138
*1983 FILLER_0_7_150
*1984 FILLER_0_7_156
*1985 FILLER_0_7_164
*1986 FILLER_0_7_176
*1987 FILLER_0_7_184
*1988 FILLER_0_7_194
*1989 FILLER_0_7_201
*1990 FILLER_0_7_203
*1991 FILLER_0_7_210
*1992 FILLER_0_7_234
*1993 FILLER_0_7_247
*1994 FILLER_0_7_254
*1995 FILLER_0_7_261
*1996 FILLER_0_8_2
*1997 FILLER_0_8_11
*1998 FILLER_0_8_22
*1999 FILLER_0_8_26
*2000 FILLER_0_8_35
*2001 FILLER_0_8_43
*2002 FILLER_0_8_55
*2003 FILLER_0_8_71
*2004 FILLER_0_8_83
*2005 FILLER_0_8_96
*2006 FILLER_0_8_118
*2007 FILLER_0_8_132
*2008 FILLER_0_8_141
*2009 FILLER_0_8_158
*2010 FILLER_0_8_162
*2011 FILLER_0_8_169
*2012 FILLER_0_8_175
*2013 FILLER_0_8_177
*2014 FILLER_0_8_184
*2015 FILLER_0_8_194
*2016 FILLER_0_8_204
*2017 FILLER_0_8_212
*2018 FILLER_0_8_226
*2019 FILLER_0_8_234
*2020 FILLER_0_8_256
*2021 FILLER_0_8_262
*2022 FILLER_0_9_2
*2023 FILLER_0_9_14
*2024 FILLER_0_9_24
*2025 FILLER_0_9_26
*2026 FILLER_0_9_47
*2027 FILLER_0_9_55
*2028 FILLER_0_9_61
*2029 FILLER_0_9_75
*2030 FILLER_0_9_83
*2031 FILLER_0_9_89
*2032 FILLER_0_9_91
*2033 FILLER_0_9_97
*2034 FILLER_0_9_111
*2035 FILLER_0_9_119
*2036 FILLER_0_9_134
*2037 FILLER_0_9_152
*2038 FILLER_0_9_166
*2039 FILLER_0_9_168
*2040 FILLER_0_9_177
*2041 FILLER_0_9_191
*2042 FILLER_0_9_206
*2043 FILLER_0_9_215
*2044 FILLER_0_9_223
*2045 FILLER_0_9_231
*2046 FILLER_0_9_235
*2047 FILLER_0_9_256
*2048 FILLER_0_9_262
*2049 FILLER_0_10_2
*2050 FILLER_0_10_4
*2051 FILLER_0_10_11
*2052 FILLER_0_10_21
*2053 FILLER_0_10_27
*2054 FILLER_0_10_35
*2055 FILLER_0_10_39
*2056 FILLER_0_10_48
*2057 FILLER_0_10_62
*2058 FILLER_0_10_68
*2059 FILLER_0_10_70
*2060 FILLER_0_10_83
*2061 FILLER_0_10_89
*2062 FILLER_0_10_96
*2063 FILLER_0_10_103
*2064 FILLER_0_10_127
*2065 FILLER_0_10_138
*2066 FILLER_0_10_150
*2067 FILLER_0_10_156
*2068 FILLER_0_10_166
*2069 FILLER_0_10_173
*2070 FILLER_0_10_189
*2071 FILLER_0_10_205